# generated using sqsgen
data_O160Mn8Fe80Zn32
_symmetry_space_group_name_H-M   'P 1'
_cell_length_a       40.89600000
_cell_length_b       8.17920000
_cell_length_c       8.17920000
_cell_angle_alpha     90.00000000
_cell_angle_beta     90.00000000
_cell_angle_gamma     90.00000000
_symmetry_Int_Tables_number   1
_chemical_formula_structural   O160Mn8Fe80Zn32
_chemical_formula_sum   'O160 Mn8 Fe80 Zn32'
_cell_volume   2735.91429
_cell_formula_units_Z   280
loop_
 _symmetry_equiv_pos_site_id
 _symmetry_equiv_pos_as_xyz
  1  'x, y, z'
loop_
 _atom_type_symbol
 _atom_type_oxidation_number
  O0+  0.0
  Mn0+  0.0
  Fe0+  0.0
  Zn0+  0.0
loop_
 _atom_site_type_symbol
 _atom_site_label
 _atom_site_symmetry_multiplicity
 _atom_site_fract_x
 _atom_site_fract_y
 _atom_site_fract_z
 _atom_site_occupancy
  O0+  O160  1  0.17773000  0.11135000  0.61135000  1
  O0+  O159  1  0.47773000  0.61135000  0.61135000  1
  O0+  O158  1  0.57773000  0.38865000  0.88865000  1
  O0+  O157  1  0.57227000  0.13865000  0.13865000  1
  O0+  O156  1  0.47227000  0.86135000  0.36135000  1
  O0+  O155  1  0.57227000  0.63865000  0.63865000  1
  O0+  O154  1  0.47773000  0.11135000  0.11135000  1
  O0+  O153  1  0.57773000  0.88865000  0.38865000  1
  O0+  O152  1  0.47227000  0.36135000  0.86135000  1
  O0+  O151  1  0.77773000  0.61135000  0.11135000  1
  O0+  O150  1  0.62227000  0.88865000  0.61135000  1
  O0+  O149  1  0.72227000  0.11135000  0.88865000  1
  O0+  O148  1  0.67773000  0.38865000  0.38865000  1
  O0+  O147  1  0.67227000  0.13865000  0.63865000  1
  O0+  O146  1  0.72773000  0.36135000  0.13865000  1
  O0+  O145  1  0.77227000  0.86135000  0.86135000  1
  O0+  O144  1  0.62773000  0.63865000  0.36135000  1
  O0+  O143  1  0.67227000  0.63865000  0.13865000  1
  O0+  O142  1  0.62773000  0.36135000  0.63865000  1
  O0+  O141  1  0.72773000  0.13865000  0.36135000  1
  O0+  O140  1  0.77773000  0.11135000  0.61135000  1
  O0+  O139  1  0.72227000  0.88865000  0.11135000  1
  O0+  O138  1  0.62227000  0.61135000  0.88865000  1
  O0+  O137  1  0.62227000  0.38865000  0.11135000  1
  O0+  O136  1  0.17773000  0.61135000  0.11135000  1
  O0+  O135  1  0.02227000  0.88865000  0.61135000  1
  O0+  O134  1  0.12227000  0.11135000  0.88865000  1
  O0+  O133  1  0.07773000  0.38865000  0.38865000  1
  O0+  O132  1  0.07227000  0.13865000  0.63865000  1
  O0+  O131  1  0.12773000  0.36135000  0.13865000  1
  O0+  O130  1  0.17227000  0.86135000  0.86135000  1
  O0+  O129  1  0.02773000  0.63865000  0.36135000  1
  O0+  O128  1  0.07227000  0.63865000  0.13865000  1
  O0+  O127  1  0.02773000  0.36135000  0.63865000  1
  O0+  O126  1  0.12773000  0.13865000  0.36135000  1
  O0+  O125  1  0.47227000  0.13865000  0.63865000  1
  O0+  O124  1  0.12227000  0.88865000  0.11135000  1
  O0+  O123  1  0.02227000  0.61135000  0.88865000  1
  O0+  O122  1  0.02227000  0.38865000  0.11135000  1
  O0+  O121  1  0.12227000  0.61135000  0.38865000  1
  O0+  O120  1  0.07773000  0.88865000  0.88865000  1
  O0+  O119  1  0.12773000  0.86135000  0.63865000  1
  O0+  O118  1  0.17227000  0.36135000  0.36135000  1
  O0+  O117  1  0.02773000  0.13865000  0.86135000  1
  O0+  O116  1  0.02773000  0.86135000  0.13865000  1
  O0+  O115  1  0.12773000  0.63865000  0.86135000  1
  O0+  O114  1  0.12227000  0.38865000  0.61135000  1
  O0+  O113  1  0.02227000  0.11135000  0.38865000  1
  O0+  O112  1  0.07773000  0.61135000  0.61135000  1
  O0+  O111  1  0.17773000  0.38865000  0.88865000  1
  O0+  O110  1  0.17227000  0.13865000  0.13865000  1
  O0+  O109  1  0.07227000  0.86135000  0.36135000  1
  O0+  O108  1  0.17227000  0.63865000  0.63865000  1
  O0+  O107  1  0.07773000  0.11135000  0.11135000  1
  O0+  O106  1  0.17773000  0.88865000  0.38865000  1
  O0+  O105  1  0.07227000  0.36135000  0.86135000  1
  O0+  O104  1  0.72227000  0.61135000  0.38865000  1
  O0+  O103  1  0.67773000  0.88865000  0.88865000  1
  O0+  O102  1  0.72773000  0.86135000  0.63865000  1
  O0+  O101  1  0.77227000  0.36135000  0.36135000  1
  O0+  O100  1  0.62773000  0.13865000  0.86135000  1
  O0+  O99  1  0.62773000  0.86135000  0.13865000  1
  O0+  O98  1  0.72773000  0.63865000  0.86135000  1
  O0+  O97  1  0.72227000  0.38865000  0.61135000  1
  O0+  O96  1  0.62227000  0.11135000  0.38865000  1
  O0+  O95  1  0.67773000  0.61135000  0.61135000  1
  O0+  O94  1  0.77773000  0.38865000  0.88865000  1
  O0+  O93  1  0.77227000  0.13865000  0.13865000  1
  O0+  O92  1  0.67227000  0.86135000  0.36135000  1
  O0+  O91  1  0.77227000  0.63865000  0.63865000  1
  O0+  O90  1  0.67773000  0.11135000  0.11135000  1
  O0+  O89  1  0.77773000  0.88865000  0.38865000  1
  O0+  O88  1  0.67227000  0.36135000  0.86135000  1
  O0+  O87  1  0.97773000  0.61135000  0.11135000  1
  O0+  O86  1  0.82227000  0.88865000  0.61135000  1
  O0+  O85  1  0.92227000  0.11135000  0.88865000  1
  O0+  O84  1  0.87773000  0.38865000  0.38865000  1
  O0+  O83  1  0.87227000  0.13865000  0.63865000  1
  O0+  O82  1  0.92773000  0.36135000  0.13865000  1
  O0+  O81  1  0.97227000  0.86135000  0.86135000  1
  O0+  O80  1  0.37773000  0.61135000  0.11135000  1
  O0+  O79  1  0.22227000  0.88865000  0.61135000  1
  O0+  O78  1  0.32227000  0.11135000  0.88865000  1
  O0+  O77  1  0.27773000  0.38865000  0.38865000  1
  O0+  O76  1  0.27227000  0.13865000  0.63865000  1
  O0+  O75  1  0.32773000  0.36135000  0.13865000  1
  O0+  O74  1  0.37227000  0.86135000  0.86135000  1
  O0+  O73  1  0.22773000  0.63865000  0.36135000  1
  O0+  O72  1  0.27227000  0.63865000  0.13865000  1
  O0+  O71  1  0.22773000  0.36135000  0.63865000  1
  O0+  O70  1  0.32773000  0.13865000  0.36135000  1
  O0+  O69  1  0.37773000  0.11135000  0.61135000  1
  O0+  O68  1  0.32227000  0.88865000  0.11135000  1
  O0+  O67  1  0.22227000  0.61135000  0.88865000  1
  O0+  O66  1  0.22227000  0.38865000  0.11135000  1
  O0+  O65  1  0.32227000  0.61135000  0.38865000  1
  O0+  O64  1  0.27773000  0.88865000  0.88865000  1
  O0+  O63  1  0.32773000  0.86135000  0.63865000  1
  O0+  O62  1  0.37227000  0.36135000  0.36135000  1
  O0+  O61  1  0.22773000  0.13865000  0.86135000  1
  O0+  O60  1  0.22773000  0.86135000  0.13865000  1
  O0+  O59  1  0.32773000  0.63865000  0.86135000  1
  O0+  O58  1  0.32227000  0.38865000  0.61135000  1
  O0+  O57  1  0.22227000  0.11135000  0.38865000  1
  O0+  O56  1  0.27773000  0.61135000  0.61135000  1
  O0+  O55  1  0.37773000  0.38865000  0.88865000  1
  O0+  O54  1  0.37227000  0.13865000  0.13865000  1
  O0+  O53  1  0.27227000  0.86135000  0.36135000  1
  O0+  O52  1  0.37227000  0.63865000  0.63865000  1
  O0+  O51  1  0.27773000  0.11135000  0.11135000  1
  O0+  O50  1  0.37773000  0.88865000  0.38865000  1
  O0+  O49  1  0.27227000  0.36135000  0.86135000  1
  O0+  O48  1  0.82773000  0.63865000  0.36135000  1
  O0+  O47  1  0.87227000  0.63865000  0.13865000  1
  O0+  O46  1  0.82773000  0.36135000  0.63865000  1
  O0+  O45  1  0.92773000  0.13865000  0.36135000  1
  O0+  O44  1  0.97773000  0.11135000  0.61135000  1
  O0+  O43  1  0.92227000  0.88865000  0.11135000  1
  O0+  O42  1  0.82227000  0.61135000  0.88865000  1
  O0+  O41  1  0.82227000  0.38865000  0.11135000  1
  O0+  O40  1  0.92227000  0.61135000  0.38865000  1
  O0+  O39  1  0.87773000  0.88865000  0.88865000  1
  O0+  O38  1  0.92773000  0.86135000  0.63865000  1
  O0+  O37  1  0.97227000  0.36135000  0.36135000  1
  O0+  O36  1  0.82773000  0.13865000  0.86135000  1
  O0+  O35  1  0.82773000  0.86135000  0.13865000  1
  O0+  O34  1  0.92773000  0.63865000  0.86135000  1
  O0+  O33  1  0.92227000  0.38865000  0.61135000  1
  O0+  O32  1  0.82227000  0.11135000  0.38865000  1
  O0+  O31  1  0.87773000  0.61135000  0.61135000  1
  O0+  O30  1  0.97773000  0.38865000  0.88865000  1
  O0+  O29  1  0.97227000  0.13865000  0.13865000  1
  O0+  O28  1  0.87227000  0.86135000  0.36135000  1
  O0+  O27  1  0.97227000  0.63865000  0.63865000  1
  O0+  O26  1  0.87773000  0.11135000  0.11135000  1
  O0+  O25  1  0.97773000  0.88865000  0.38865000  1
  O0+  O24  1  0.57773000  0.61135000  0.11135000  1
  O0+  O23  1  0.42227000  0.88865000  0.61135000  1
  O0+  O22  1  0.52227000  0.11135000  0.88865000  1
  O0+  O21  1  0.47773000  0.38865000  0.38865000  1
  O0+  O20  1  0.87227000  0.36135000  0.86135000  1
  O0+  O19  1  0.52773000  0.36135000  0.13865000  1
  O0+  O18  1  0.57227000  0.86135000  0.86135000  1
  O0+  O17  1  0.42773000  0.63865000  0.36135000  1
  O0+  O16  1  0.47227000  0.63865000  0.13865000  1
  O0+  O15  1  0.42773000  0.36135000  0.63865000  1
  O0+  O14  1  0.52773000  0.13865000  0.36135000  1
  O0+  O13  1  0.57773000  0.11135000  0.61135000  1
  O0+  O12  1  0.52227000  0.88865000  0.11135000  1
  O0+  O11  1  0.42227000  0.61135000  0.88865000  1
  O0+  O10  1  0.42227000  0.38865000  0.11135000  1
  O0+  O9  1  0.52227000  0.61135000  0.38865000  1
  O0+  O8  1  0.47773000  0.88865000  0.88865000  1
  O0+  O7  1  0.52773000  0.86135000  0.63865000  1
  O0+  O6  1  0.57227000  0.36135000  0.36135000  1
  O0+  O5  1  0.42773000  0.13865000  0.86135000  1
  O0+  O4  1  0.42773000  0.86135000  0.13865000  1
  O0+  O3  1  0.52773000  0.63865000  0.86135000  1
  O0+  O2  1  0.52227000  0.38865000  0.61135000  1
  O0+  O1  1  0.42227000  0.11135000  0.38865000  1
  Mn0+  Mn8  1  0.00000000  0.00000000  0.00000000  1
  Mn0+  Mn7  1  0.40000000  0.50000000  0.50000000  1
  Mn0+  Mn6  1  0.10000000  0.50000000  0.00000000  1
  Mn0+  Mn5  1  0.25000000  0.25000000  0.25000000  1
  Mn0+  Mn4  1  0.80000000  0.00000000  0.00000000  1
  Mn0+  Mn3  1  0.00000000  0.50000000  0.50000000  1
  Mn0+  Mn2  1  0.50000000  0.50000000  0.00000000  1
  Mn0+  Mn1  1  0.45000000  0.75000000  0.75000000  1
  Fe0+  Fe80  1  0.62500000  0.62500000  0.12500000  1
  Fe0+  Fe79  1  0.77500000  0.87500000  0.62500000  1
  Fe0+  Fe78  1  0.77500000  0.37500000  0.12500000  1
  Fe0+  Fe77  1  0.67500000  0.62500000  0.37500000  1
  Fe0+  Fe76  1  0.62500000  0.12500000  0.62500000  1
  Fe0+  Fe75  1  0.07500000  0.12500000  0.87500000  1
  Fe0+  Fe74  1  0.12500000  0.37500000  0.37500000  1
  Fe0+  Fe73  1  0.02500000  0.62500000  0.12500000  1
  Fe0+  Fe72  1  0.17500000  0.87500000  0.62500000  1
  Fe0+  Fe71  1  0.17500000  0.37500000  0.12500000  1
  Fe0+  Fe70  1  0.07500000  0.62500000  0.37500000  1
  Fe0+  Fe69  1  0.02500000  0.12500000  0.62500000  1
  Fe0+  Fe68  1  0.12500000  0.87500000  0.87500000  1
  Fe0+  Fe67  1  0.02500000  0.87500000  0.37500000  1
  Fe0+  Fe66  1  0.07500000  0.37500000  0.62500000  1
  Fe0+  Fe65  1  0.12500000  0.12500000  0.12500000  1
  Fe0+  Fe64  1  0.17500000  0.62500000  0.87500000  1
  Fe0+  Fe63  1  0.17500000  0.12500000  0.37500000  1
  Fe0+  Fe62  1  0.07500000  0.87500000  0.12500000  1
  Fe0+  Fe61  1  0.02500000  0.37500000  0.87500000  1
  Fe0+  Fe60  1  0.12500000  0.62500000  0.62500000  1
  Fe0+  Fe59  1  0.72500000  0.87500000  0.87500000  1
  Fe0+  Fe58  1  0.62500000  0.87500000  0.37500000  1
  Fe0+  Fe57  1  0.67500000  0.37500000  0.62500000  1
  Fe0+  Fe56  1  0.72500000  0.12500000  0.12500000  1
  Fe0+  Fe55  1  0.77500000  0.62500000  0.87500000  1
  Fe0+  Fe54  1  0.77500000  0.12500000  0.37500000  1
  Fe0+  Fe53  1  0.67500000  0.87500000  0.12500000  1
  Fe0+  Fe52  1  0.27500000  0.12500000  0.87500000  1
  Fe0+  Fe51  1  0.32500000  0.37500000  0.37500000  1
  Fe0+  Fe50  1  0.22500000  0.62500000  0.12500000  1
  Fe0+  Fe49  1  0.37500000  0.87500000  0.62500000  1
  Fe0+  Fe48  1  0.37500000  0.37500000  0.12500000  1
  Fe0+  Fe47  1  0.27500000  0.62500000  0.37500000  1
  Fe0+  Fe46  1  0.22500000  0.12500000  0.62500000  1
  Fe0+  Fe45  1  0.32500000  0.87500000  0.87500000  1
  Fe0+  Fe44  1  0.22500000  0.87500000  0.37500000  1
  Fe0+  Fe43  1  0.27500000  0.37500000  0.62500000  1
  Fe0+  Fe42  1  0.32500000  0.12500000  0.12500000  1
  Fe0+  Fe41  1  0.37500000  0.62500000  0.87500000  1
  Fe0+  Fe40  1  0.37500000  0.12500000  0.37500000  1
  Fe0+  Fe39  1  0.27500000  0.87500000  0.12500000  1
  Fe0+  Fe38  1  0.22500000  0.37500000  0.87500000  1
  Fe0+  Fe37  1  0.32500000  0.62500000  0.62500000  1
  Fe0+  Fe36  1  0.62500000  0.37500000  0.87500000  1
  Fe0+  Fe35  1  0.72500000  0.62500000  0.62500000  1
  Fe0+  Fe34  1  0.97500000  0.12500000  0.37500000  1
  Fe0+  Fe33  1  0.47500000  0.12500000  0.87500000  1
  Fe0+  Fe32  1  0.52500000  0.37500000  0.37500000  1
  Fe0+  Fe31  1  0.42500000  0.62500000  0.12500000  1
  Fe0+  Fe30  1  0.57500000  0.87500000  0.62500000  1
  Fe0+  Fe29  1  0.57500000  0.37500000  0.12500000  1
  Fe0+  Fe28  1  0.47500000  0.62500000  0.37500000  1
  Fe0+  Fe27  1  0.42500000  0.12500000  0.62500000  1
  Fe0+  Fe26  1  0.52500000  0.87500000  0.87500000  1
  Fe0+  Fe25  1  0.42500000  0.87500000  0.37500000  1
  Fe0+  Fe24  1  0.47500000  0.37500000  0.62500000  1
  Fe0+  Fe23  1  0.52500000  0.12500000  0.12500000  1
  Fe0+  Fe22  1  0.57500000  0.62500000  0.87500000  1
  Fe0+  Fe21  1  0.57500000  0.12500000  0.37500000  1
  Fe0+  Fe20  1  0.47500000  0.87500000  0.12500000  1
  Fe0+  Fe19  1  0.42500000  0.37500000  0.87500000  1
  Fe0+  Fe18  1  0.52500000  0.62500000  0.62500000  1
  Fe0+  Fe17  1  0.87500000  0.12500000  0.87500000  1
  Fe0+  Fe16  1  0.92500000  0.37500000  0.37500000  1
  Fe0+  Fe15  1  0.82500000  0.62500000  0.12500000  1
  Fe0+  Fe14  1  0.97500000  0.87500000  0.62500000  1
  Fe0+  Fe13  1  0.97500000  0.37500000  0.12500000  1
  Fe0+  Fe12  1  0.87500000  0.62500000  0.37500000  1
  Fe0+  Fe11  1  0.82500000  0.12500000  0.62500000  1
  Fe0+  Fe10  1  0.92500000  0.87500000  0.87500000  1
  Fe0+  Fe9  1  0.82500000  0.87500000  0.37500000  1
  Fe0+  Fe8  1  0.87500000  0.37500000  0.62500000  1
  Fe0+  Fe7  1  0.92500000  0.12500000  0.12500000  1
  Fe0+  Fe6  1  0.97500000  0.62500000  0.87500000  1
  Fe0+  Fe5  1  0.87500000  0.87500000  0.12500000  1
  Fe0+  Fe4  1  0.82500000  0.37500000  0.87500000  1
  Fe0+  Fe3  1  0.92500000  0.62500000  0.62500000  1
  Fe0+  Fe2  1  0.67500000  0.12500000  0.87500000  1
  Fe0+  Fe1  1  0.72500000  0.37500000  0.37500000  1
  Zn0+  Zn32  1  0.10000000  0.00000000  0.50000000  1
  Zn0+  Zn31  1  0.05000000  0.25000000  0.25000000  1
  Zn0+  Zn30  1  0.15000000  0.25000000  0.75000000  1
  Zn0+  Zn29  1  0.15000000  0.75000000  0.25000000  1
  Zn0+  Zn28  1  0.05000000  0.75000000  0.75000000  1
  Zn0+  Zn27  1  0.20000000  0.50000000  0.50000000  1
  Zn0+  Zn26  1  0.20000000  0.00000000  0.00000000  1
  Zn0+  Zn25  1  0.30000000  0.00000000  0.50000000  1
  Zn0+  Zn24  1  0.30000000  0.50000000  0.00000000  1
  Zn0+  Zn23  1  0.35000000  0.25000000  0.75000000  1
  Zn0+  Zn22  1  0.35000000  0.75000000  0.25000000  1
  Zn0+  Zn21  1  0.25000000  0.75000000  0.75000000  1
  Zn0+  Zn20  1  0.40000000  0.00000000  0.00000000  1
  Zn0+  Zn19  1  0.50000000  0.00000000  0.50000000  1
  Zn0+  Zn18  1  0.45000000  0.25000000  0.25000000  1
  Zn0+  Zn17  1  0.85000000  0.75000000  0.75000000  1
  Zn0+  Zn16  1  0.55000000  0.75000000  0.25000000  1
  Zn0+  Zn15  1  0.60000000  0.00000000  0.00000000  1
  Zn0+  Zn14  1  0.70000000  0.00000000  0.50000000  1
  Zn0+  Zn13  1  0.70000000  0.50000000  0.00000000  1
  Zn0+  Zn12  1  0.65000000  0.25000000  0.25000000  1
  Zn0+  Zn11  1  0.75000000  0.25000000  0.75000000  1
  Zn0+  Zn10  1  0.75000000  0.75000000  0.25000000  1
  Zn0+  Zn9  1  0.65000000  0.75000000  0.75000000  1
  Zn0+  Zn8  1  0.80000000  0.50000000  0.50000000  1
  Zn0+  Zn7  1  0.55000000  0.25000000  0.75000000  1
  Zn0+  Zn6  1  0.90000000  0.00000000  0.50000000  1
  Zn0+  Zn5  1  0.90000000  0.50000000  0.00000000  1
  Zn0+  Zn4  1  0.85000000  0.25000000  0.25000000  1
  Zn0+  Zn3  1  0.95000000  0.25000000  0.75000000  1
  Zn0+  Zn2  1  0.95000000  0.75000000  0.25000000  1
  Zn0+  Zn1  1  0.60000000  0.50000000  0.50000000  1

