
#======================================================================
# CRYSTAL DATA
#----------------------------------------------------------------------
data_VESTA_phase_1

_chemical_name_common                  'Mn8 Fe16 O32'
_cell_length_a                         8.230723
_cell_length_b                         8.230723
_cell_length_c                         8.230723
_cell_angle_alpha                      90.000000
_cell_angle_beta                       90.000000
_cell_angle_gamma                      90.000000
_cell_volume                           557.588770
_space_group_name_H-M_alt              'F d -3 m'
_space_group_IT_number                 227

loop_
_space_group_symop_operation_xyz
   'x, y, z'
   '-x, -y+1/2t, z+1/2t'
   '-x+1/2t, y+1/2t, -z'
   'x+1/2t, -y, -z+1/2t'
   'z, x, y'
   'z+1/2t, -x, -y+1/2t'
   '-z, -x+1/2t, y+1/2t'
   '-z+1/2t, x+1/2t, -y'
   'y, z, x'
   '-y+1/2t, z+1/2t, -x'
   'y+1/2t, -z, -x+1/2t'
   '-y, -z+1/2t, x+1/2t'
   'y+3/4t, x+1/4t, -z+3/4t'
   '-y+1/4t, -x+1/4t, -z+1/4t'
   'y+1/4t, -x+3/4t, z+3/4t'
   '-y+3/4t, x+3/4t, z+1/4t'
   'x+3/4t, z+1/4t, -y+3/4t'
   '-x+3/4t, z+3/4t, y+1/4t'
   '-x+1/4t, -z+1/4t, -y+1/4t'
   'x+1/4t, -z+3/4t, y+3/4t'
   'z+3/4t, y+1/4t, -x+3/4t'
   'z+1/4t, -y+3/4t, x+3/4t'
   '-z+3/4t, y+3/4t, x+1/4t'
   '-z+1/4t, -y+1/4t, -x+1/4t'
   '-x+1/4t, -y+1/4t, -z+1/4t'
   'x+1/4t, y+3/4t, -z+3/4t'
   'x+3/4t, -y+3/4t, z+1/4t'
   '-x+3/4t, y+1/4t, z+3/4t'
   '-z+1/4t, -x+1/4t, -y+1/4t'
   '-z+3/4t, x+1/4t, y+3/4t'
   'z+1/4t, x+3/4t, -y+3/4t'
   'z+3/4t, -x+3/4t, y+1/4t'
   '-y+1/4t, -z+1/4t, -x+1/4t'
   'y+3/4t, -z+3/4t, x+1/4t'
   '-y+3/4t, z+1/4t, x+3/4t'
   'y+1/4t, z+3/4t, -x+3/4t'
   '-y+1/2t, -x, z+1/2t'
   'y, x, z'
   '-y, x+1/2t, -z+1/2t'
   'y+1/2t, -x+1/2t, -z'
   '-x+1/2t, -z, y+1/2t'
   'x+1/2t, -z+1/2t, -y'
   'x, z, y'
   '-x, z+1/2t, -y+1/2t'
   '-z+1/2t, -y, x+1/2t'
   '-z, y+1/2t, -x+1/2t'
   'z+1/2t, -y+1/2t, -x'
   'z, y, x'
   'x, y+1/2t, z+1/2t'
   '-x, -y, z'
   '-x+1/2t, y, -z+1/2t'
   'x+1/2t, -y+1/2t, -z'
   'z, x+1/2t, y+1/2t'
   'z+1/2t, -x+1/2t, -y'
   '-z, -x, y'
   '-z+1/2t, x, -y+1/2t'
   'y, z+1/2t, x+1/2t'
   '-y+1/2t, z, -x+1/2t'
   'y+1/2t, -z+1/2t, -x'
   '-y, -z, x'
   'y+3/4t, x+3/4t, -z+1/4t'
   '-y+1/4t, -x+3/4t, -z+3/4t'
   'y+1/4t, -x+1/4t, z+1/4t'
   '-y+3/4t, x+1/4t, z+3/4t'
   'x+3/4t, z+3/4t, -y+1/4t'
   '-x+3/4t, z+1/4t, y+3/4t'
   '-x+1/4t, -z+3/4t, -y+3/4t'
   'x+1/4t, -z+1/4t, y+1/4t'
   'z+3/4t, y+3/4t, -x+1/4t'
   'z+1/4t, -y+1/4t, x+1/4t'
   '-z+3/4t, y+1/4t, x+3/4t'
   '-z+1/4t, -y+3/4t, -x+3/4t'
   '-x+1/4t, -y+3/4t, -z+3/4t'
   'x+1/4t, y+1/4t, -z+1/4t'
   'x+3/4t, -y+1/4t, z+3/4t'
   '-x+3/4t, y+3/4t, z+1/4t'
   '-z+1/4t, -x+3/4t, -y+3/4t'
   '-z+3/4t, x+3/4t, y+1/4t'
   'z+1/4t, x+1/4t, -y+1/4t'
   'z+3/4t, -x+1/4t, y+3/4t'
   '-y+1/4t, -z+3/4t, -x+3/4t'
   'y+3/4t, -z+1/4t, x+3/4t'
   '-y+3/4t, z+3/4t, x+1/4t'
   'y+1/4t, z+1/4t, -x+1/4t'
   '-y+1/2t, -x+1/2t, z'
   'y, x+1/2t, z+1/2t'
   '-y, x, -z'
   'y+1/2t, -x, -z+1/2t'
   '-x+1/2t, -z+1/2t, y'
   'x+1/2t, -z, -y+1/2t'
   'x, z+1/2t, y+1/2t'
   '-x, z, -y'
   '-z+1/2t, -y+1/2t, x'
   '-z, y, -x'
   'z+1/2t, -y, -x+1/2t'
   'z, y+1/2t, x+1/2t'
   'x+1/2t, y, z+1/2t'
   '-x+1/2t, -y+1/2t, z'
   '-x, y+1/2t, -z+1/2t'
   'x, -y, -z'
   'z+1/2t, x, y+1/2t'
   'z, -x, -y'
   '-z+1/2t, -x+1/2t, y'
   '-z, x+1/2t, -y+1/2t'
   'y+1/2t, z, x+1/2t'
   '-y, z+1/2t, -x+1/2t'
   'y, -z, -x'
   '-y+1/2t, -z+1/2t, x'
   'y+1/4t, x+1/4t, -z+1/4t'
   '-y+3/4t, -x+1/4t, -z+3/4t'
   'y+3/4t, -x+3/4t, z+1/4t'
   '-y+1/4t, x+3/4t, z+3/4t'
   'x+1/4t, z+1/4t, -y+1/4t'
   '-x+1/4t, z+3/4t, y+3/4t'
   '-x+3/4t, -z+1/4t, -y+3/4t'
   'x+3/4t, -z+3/4t, y+1/4t'
   'z+1/4t, y+1/4t, -x+1/4t'
   'z+3/4t, -y+3/4t, x+1/4t'
   '-z+1/4t, y+3/4t, x+3/4t'
   '-z+3/4t, -y+1/4t, -x+3/4t'
   '-x+3/4t, -y+1/4t, -z+3/4t'
   'x+3/4t, y+3/4t, -z+1/4t'
   'x+1/4t, -y+3/4t, z+3/4t'
   '-x+1/4t, y+1/4t, z+1/4t'
   '-z+3/4t, -x+1/4t, -y+3/4t'
   '-z+1/4t, x+1/4t, y+1/4t'
   'z+3/4t, x+3/4t, -y+1/4t'
   'z+1/4t, -x+3/4t, y+3/4t'
   '-y+3/4t, -z+1/4t, -x+3/4t'
   'y+1/4t, -z+3/4t, x+3/4t'
   '-y+1/4t, z+1/4t, x+1/4t'
   'y+3/4t, z+3/4t, -x+1/4t'
   '-y, -x, z'
   'y+1/2t, x, z+1/2t'
   '-y+1/2t, x+1/2t, -z'
   'y, -x+1/2t, -z+1/2t'
   '-x, -z, y'
   'x, -z+1/2t, -y+1/2t'
   'x+1/2t, z, y+1/2t'
   '-x+1/2t, z+1/2t, -y'
   '-z, -y, x'
   '-z+1/2t, y+1/2t, -x'
   'z, -y+1/2t, -x+1/2t'
   'z+1/2t, y, x+1/2t'
   'x+1/2t, y+1/2t, z'
   '-x+1/2t, -y, z+1/2t'
   '-x, y, -z'
   'x, -y+1/2t, -z+1/2t'
   'z+1/2t, x+1/2t, y'
   'z, -x+1/2t, -y+1/2t'
   '-z+1/2t, -x, y+1/2t'
   '-z, x, -y'
   'y+1/2t, z+1/2t, x'
   '-y, z, -x'
   'y, -z+1/2t, -x+1/2t'
   '-y+1/2t, -z, x+1/2t'
   'y+1/4t, x+3/4t, -z+3/4t'
   '-y+3/4t, -x+3/4t, -z+1/4t'
   'y+3/4t, -x+1/4t, z+3/4t'
   '-y+1/4t, x+1/4t, z+1/4t'
   'x+1/4t, z+3/4t, -y+3/4t'
   '-x+1/4t, z+1/4t, y+1/4t'
   '-x+3/4t, -z+3/4t, -y+1/4t'
   'x+3/4t, -z+1/4t, y+3/4t'
   'z+1/4t, y+3/4t, -x+3/4t'
   'z+3/4t, -y+1/4t, x+3/4t'
   '-z+1/4t, y+1/4t, x+1/4t'
   '-z+3/4t, -y+3/4t, -x+1/4t'
   '-x+3/4t, -y+3/4t, -z+1/4t'
   'x+3/4t, y+1/4t, -z+3/4t'
   'x+1/4t, -y+1/4t, z+1/4t'
   '-x+1/4t, y+3/4t, z+3/4t'
   '-z+3/4t, -x+3/4t, -y+1/4t'
   '-z+1/4t, x+3/4t, y+3/4t'
   'z+3/4t, x+1/4t, -y+3/4t'
   'z+1/4t, -x+1/4t, y+1/4t'
   '-y+3/4t, -z+3/4t, -x+1/4t'
   'y+1/4t, -z+1/4t, x+1/4t'
   '-y+1/4t, z+3/4t, x+3/4t'
   'y+3/4t, z+1/4t, -x+3/4t'
   '-y, -x+1/2t, z+1/2t'
   'y+1/2t, x+1/2t, z'
   '-y+1/2t, x, -z+1/2t'
   'y, -x, -z'
   '-x, -z+1/2t, y+1/2t'
   'x, -z, -y'
   'x+1/2t, z+1/2t, y'
   '-x+1/2t, z, -y+1/2t'
   '-z, -y+1/2t, x+1/2t'
   '-z+1/2t, y, -x+1/2t'
   'z, -y, -x'
   'z+1/2t, y+1/2t, x'

loop_
   _atom_site_label
   _atom_site_occupancy
   _atom_site_fract_x
   _atom_site_fract_y
   _atom_site_fract_z
   _atom_site_adp_type
   _atom_site_U_iso_or_equiv
   _atom_site_type_symbol
   Mn0        0.2  0.000000     0.000000     0.500000    Uiso  ? Mn
   Zn1        0.8  0.000000     0.000000     0.500000    Uiso  ? Zn
   Fe2        1.0     0.125000     0.125000     0.125000    Uiso  ? Fe
   O4         1.0     0.110807     0.110807     0.889193    Uiso  ? O
